powerfactory/powerfactory-converter/src/test/resources/ThreeWindingsTransformerVoltageControl.dgs
$$General;ID(a:40);Descr(a:40);Val(a:40)
  1;Version;5.0

$$ChaRef;ID(a:40);loc_name(a:40);fold_id(p)
  2;fline;6
  3;ratfac;13

$$ChaVec;ID(a:40);loc_name(a:40);fold_id(p);scale(p);usage(i);approx(i);vector:SIZEROW(i);vector:0(r);vector:1(r);vector:2(r)
  4;vec_1;;;0;0;3;100;199,98;199,98
  5;vec_2;;;0;0;3;100;33598,7903225806;33598,7903225806

$$ElmNet;ID(a:40);loc_name(a:40);for_name(a:50);fold_id(p);frnom(r);pDiagram(p)
  8;1 aux_1;;;60;

$$ElmLne;ID(a:40);loc_name(a:40);for_name(a:50);fold_id(p);typ_id(p);dline(r);fline(r)
  10;Line_1_2_1;;8;200;52;1
  11;Line_1_3_1;;8;200;52;1
  12;Line_1_4_1;;8;200;52;1
  13;Line_4_5_1;;8;200;52;1
  14;Line_1_6_1;;8;200;52;1

$$ElmLod;ID(a:40);loc_name(a:40);for_name(a:50);fold_id(p);typ_id(p);mode_inp(a:3);slini(r);plini(r);qlini(r);coslini(r);pf_recap(i);scale0(r);i_scale(i);outserv(i)
  20;Load_2M_1;;8;300;PQ;55,9017;50;25;0,894427;0;1;0;0
  21;Load_2L_1;;8;300;PQ;55,9017;50;25;0,894427;0;1;0;0
  22;Load_3M_1;;8;300;PQ;55,9017;50;25;0,894427;0;1;0;0
  23;Load_3L_1;;8;300;PQ;55,9017;50;25;0,894427;0;1;0;0
  24;Load_5M_1;;8;300;PQ;55,9017;50;25;0,894427;0;1;0;0
  25;Load_5L_1;;8;300;PQ;55,9017;50;25;0,894427;0;1;0;0
  26;Load_6M_1;;8;300;PQ;55,9017;50;25;0,894427;0;1;0;0
  27;Load_6L_1;;8;300;PQ;55,9017;50;25;0,894427;0;1;0;0

$$ElmSym;ID(a:40);loc_name(a:40);for_name(a:50);fold_id(p);typ_id(p);cCategory(a);ngnum(i);i_mot(i);pgini(r);qgini(r);cosgini(r);usetp(r);pf_recap(i);q_min(r);q_max(r);outserv(i);av_mode(a);phtech(i)
  30;Gen_1_1;;8;400;Others;1;0;50,47;0;1;1,06;0;0;0;0;constv;1

$$ElmTr3;ID(a:40);loc_name(a:40);for_name(a:50);fold_id(p);nt3nm(i);typ_id(p);outserv(i);n3tap_h(i);n3tap_m(i);n3tap_l(i);ictrlside(i);ntrcn(i);t3ldc(i);imldc(a:2);i_rem(i);p_rem(p);usetp(r);usp_up(r);usp_low(r)
  40;T3w_2_2M_2L_1;;8;0;500;0;8;0;0;0;1;0;V;0;;1,010;1,015;1,005
  41;T3w_3_3M_3L_1;;8;0;500;0;8;0;0;0;1;1;V;0;;1,010;1,015;1,005
  42;T3w_5_5M_5L_1;;8;0;500;0;8;0;0;0;1;0;V;1;53;1,010;1,015;1,005
  43;T3w_6_6M_6L_1;;8;0;500;0;8;0;0;0;1;2;V;0;;1,010;1,015;1,005

$$ElmTerm;ID(a:40);loc_name(a:40);for_name(a:50);fold_id(p);typ_id(p);systype(i);iUsage(i);uknom(r);outserv(i)
  50;Bus 1-Slack;;8;;0;0;400;0
  51;Bus 2;;8;;0;0;400;0
  52;Bus 3;;8;;0;0;400;0
  53;Bus 4;;8;;0;0;400;0
  54;Bus 5;;8;;0;0;400;0
  55;Bus 6;;8;;0;0;400;0
  56;Bus 2M;;8;;0;0;110;0
  57;Bus 2L;;8;;0;0;20;0
  58;Bus 3M;;8;;0;0;110;0
  59;Bus 3L;;8;;0;0;20;0
  60;Bus 5M;;8;;0;0;110;0
  61;Bus 5L;;8;;0;0;20;0
  62;Bus 6M;;8;;0;0;100;0
  63;Bus 6L;;8;;0;0;20;0

$$StaCubic;ID(a:40);loc_name(a:40);for_name(a:50);fold_id(p);obj_id(p);obj_bus(i)
  80;SC-Line_1_2_1-1;;50;10;0
  81;SC-Line_1_2_1-2;;51;10;1
  82;SC-Line_1_3_1-1;;50;11;0
  83;SC-Line_1_3_1-2;;52;11;1
  84;SC-Line_1_4_1-1;;50;12;0
  85;SC-Line_1_4_1-2;;53;12;1
  86;SC-Line_4_5_1-1;;53;13;0
  87;SC-Line_4_5_1-2;;54;13;1
  88;SC-Line_1_6_1-1;;50;14;0
  89;SC-Line_1_6_1-2;;55;14;1
  90;SC-Load_2M_1;;56;20;0
  91;SC-Load_2L_1;;57;21;0
  92;SC-Load_3M_1;;58;22;0
  93;SC-Load_3L_1;;59;23;0
  94;SC-Load_5M_1;;60;24;0
  95;SC-Load_5L_1;;61;25;0
  96;SC-Load_6M_1;;62;26;0
  97;SC-Load_6L_1;;63;27;0
  98;SC-Gen_1_1;;50;30;0
  99;SC-T3w_2_2M_2L_1-1;;51;40;0
 100;SC-T3w_2_2M_2L_1-2;;56;40;1
 101;SC-T3w_2_2M_2L_1-3;;57;40;2
 102;SC-T3w_3_3M_3L_1-1;;52;41;0
 103;SC-T3w_3_3M_3L_1-2;;58;41;1
 104;SC-T3w_3_3M_3L_1-3;;59;41;2
 105;SC-T3w_5_5M_5L_1-1;;54;42;0
 106;SC-T3w_5_5M_5L_1-2;;60;42;1
 107;SC-T3w_5_5M_5L_1-3;;61;42;2
 108;SC-T3w_6_6M_6L_1-1;;55;43;0
 109;SC-T3w_6_6M_6L_1-2;;62;43;1
 110;SC-T3w_6_6M_6L_1-3;;63;43;2

$$StaSwitch;ID(a:40);loc_name(a:40);for_name(a:50);fold_id(p);on_off(i);typ_id(p);aUsage(a)
  150;Switch-150;;80;1;;cbk
  151;Switch-151;;81;1;;cbk
  152;Switch-152;;82;1;;cbk
  153;Switch-153;;83;1;;cbk
  154;Switch-154;;84;1;;cbk
  155;Switch-155;;85;1;;cbk
  156;Switch-156;;86;1;;cbk
  157;Switch-157;;87;1;;cbk
  158;Switch-158;;88;1;;cbk
  159;Switch-159;;89;1;;cbk
  160;Switch-160;;90;1;;cbk
  161;Switch-161;;91;1;;cbk
  162;Switch-162;;92;1;;cbk
  163;Switch-163;;93;1;;cbk
  164;Switch-164;;94;1;;cbk
  165;Switch-165;;95;1;;cbk
  166;Switch-166;;96;1;;cbk
  167;Switch-167;;97;1;;cbk
  168;Switch-168;;98;1;;cbk
  169;Switch-169;;99;1;;cbk
  170;Switch-170;;100;1;;cbk
  171;Switch-171;;101;1;;cbk
  172;Switch-172;;102;1;;cbk
  173;Switch-173;;103;1;;cbk
  174;Switch-174;;104;1;;cbk
  175;Switch-175;;105;1;;cbk
  176;Switch-176;;106;1;;cbk
  177;Switch-177;;107;1;;cbk
  178;Switch-178;;108;1;;cbk
  179;Switch-179;;109;1;;cbk
  180;Switch-180;;110;1;;cbk

$$TypLne;ID(a:40);loc_name(a:40);for_name(a:50);fold_id(p);uline(r);sline(r);InomAir(r);cohl_(i);rline(r);xline(r);rline0(r);xline0(r);Ithr(r);tmax(r);rtemp(r);systp(i);nlnph(i);nneutral(i);frnom(r);mlei(a:2);bline(r);bline0(r)
  200;Line-type;;8;400;7,216878;1;0;0,596307;1,820615;999999;999999;0;80;80;0;3;0;60;Cu;4,159616;0

$$TypLod;ID(a:40);loc_name(a:40);for_name(a:50);fold_id(p);systp(i);phtech(i);aP(r);bP(r);kpu0(r);kpu1(r);kpu(r);aQ(r);bQ(r);kqu0(r);kqu1(r);kqu(r)
  300;Load-type;;8;0;0;1;0;0;1;2;1;0;0;1;2

$$TypSym;ID(a:40);loc_name(a:40);for_name(a:50);fold_id(p);sgn(r);ugn(r);cosn(r);xd(r);xq(r);xdsss(r);rstr(r);xdsat(r);satur(i);nphase(i);nslty(i);x0sy(r);r0sy(r);x2sy(r);r2sy(r);iopt_data(i);xds(r);xqs(r);xl(r);xdss(r);xqss(r);xrlq(r);tds(r);tqs(r);tdss(r);tqss(r)
  400;Gen-type;;8;615;400;1;2;2;1;0;1,2;0;3;2;1;0;1;0;1;0,3;0,3;0,1;1;1;0;1;0;0,05;0,05

$$TypTr3;ID(a:40);loc_name(a:40);for_name(a:50);fold_id(p);strn3_h(r);strn3_m(r);strn3_l(r);utrn3_h(r);utrn3_m(r);utrn3_l(r);uktr3_h(r);uktr3_m(r);uktr3_l(r);pcut3_h(r);pcut3_m(r);pcut3_l(r);uk0hm(r);uk0ml(r);uk0hl(r);ur0hm(r);ur0ml(r);ur0hl(r);tr3cn_h(a:2);tr3cn_m(a:2);tr3cn_l(a:2);nt3ag_h(r);nt3ag_m(r);nt3ag_l(r);curm3(r);pfe(r);du3tp_h(r);ph3tr_h(r);n3tp0_h(i);n3tmn_h(i);n3tmx_h(i);du3tp_m(r);ph3tr_m(r);n3tp0_m(i);n3tmn_m(i);n3tmx_m(i);du3tp_l(r);ph3tr_l(r);n3tp0_l(i);n3tmn_l(i);n3tmx_l(i);itapos(i);i3loc(i)
  500;T3w-type;;27;101;201;301;515;18,36;15,68;3,083255;14,93645;6,724075;17,61356;135,1672;0,603695;0;0;0;0;0;0;YN;YN;YN;-0;-0;-0;0,178613;144,572;1,875;0;0;-5;7;0;0;0;0;0;0;0;0;0;0;1;0
